data_mno2-lambda
# http://www.crystallography.net/cod/1513962.html
_symmetry_space_group_name_H-M   'F d -3 m :2'
_cell_length_a                   8.245(1)
_cell_length_b                   8.245(1)
_cell_length_c                   8.245(1)
_cell_angle_alpha                90
_cell_angle_beta                 90
_cell_angle_gamma                90
_symmetry_Int_Tables_number   227
_cell_volume                     560.50(12)

loop_
_symmetry_equiv_pos_as_xyz
   '-z, y+3/4, x+3/4'
   'z+3/4, -y, x+3/4'
   'z+3/4, y+3/4, -x'
   '-z, -y, -x'
   'y+3/4, x+3/4, -z'
   '-y, x+3/4, z+3/4'
   'y+3/4, -x, z+3/4'
   '-y, -x, -z'
   'x+3/4, -z, y+3/4'
   'x+3/4, z+3/4, -y'
   '-x, z+3/4, y+3/4'
   '-x, -z, -y'
   '-z, x+3/4, y+3/4'
   'z+3/4, x+3/4, -y'
   'z+3/4, -x, y+3/4'
   '-z, -x, -y'
   'y+3/4, -z, x+3/4'
   '-y, z+3/4, x+3/4'
   'y+3/4, z+3/4, -x'
   '-y, -z, -x'
   'x+3/4, y+3/4, -z'
   'x+3/4, -y, z+3/4'
   '-x, y+3/4, z+3/4'
   '-x, -y, -z'
   'z, -y+1/4, -x+1/4'
   '-z+1/4, y, -x+1/4'
   '-z+1/4, -y+1/4, x'
   'z, y, x'
   '-y+1/4, -x+1/4, z'
   'y, -x+1/4, -z+1/4'
   '-y+1/4, x, -z+1/4'
   'y, x, z'
   '-x+1/4, z, -y+1/4'
   '-x+1/4, -z+1/4, y'
   'x, -z+1/4, -y+1/4'
   'x, z, y'
   'z, -x+1/4, -y+1/4'
   '-z+1/4, -x+1/4, y'
   '-z+1/4, x, -y+1/4'
   'z, x, y'
   '-y+1/4, z, -x+1/4'
   'y, -z+1/4, -x+1/4'
   '-y+1/4, -z+1/4, x'
   'y, z, x'
   '-x+1/4, -y+1/4, z'
   '-x+1/4, y, -z+1/4'
   'x, -y+1/4, -z+1/4'
   'x, y, z'
   '-z, y+1/4, x+1/4'
   '-z+1/2, y+3/4, x+1/4'
   '-z+1/2, y+1/4, x+3/4'
   'z+3/4, -y+1/2, x+1/4'
   'z+1/4, -y, x+1/4'
   'z+1/4, -y+1/2, x+3/4'
   'z+3/4, y+1/4, -x+1/2'
   'z+1/4, y+3/4, -x+1/2'
   'z+1/4, y+1/4, -x'
   '-z, -y+1/2, -x+1/2'
   '-z+1/2, -y, -x+1/2'
   '-z+1/2, -y+1/2, -x'
   'y+3/4, x+1/4, -z+1/2'
   'y+1/4, x+3/4, -z+1/2'
   'y+1/4, x+1/4, -z'
   '-y, x+1/4, z+1/4'
   '-y+1/2, x+3/4, z+1/4'
   '-y+1/2, x+1/4, z+3/4'
   'y+3/4, -x+1/2, z+1/4'
   'y+1/4, -x, z+1/4'
   'y+1/4, -x+1/2, z+3/4'
   '-y, -x+1/2, -z+1/2'
   '-y+1/2, -x, -z+1/2'
   '-y+1/2, -x+1/2, -z'
   'x+3/4, -z+1/2, y+1/4'
   'x+1/4, -z, y+1/4'
   'x+1/4, -z+1/2, y+3/4'
   'x+3/4, z+1/4, -y+1/2'
   'x+1/4, z+3/4, -y+1/2'
   'x+1/4, z+1/4, -y'
   '-x, z+1/4, y+1/4'
   '-x+1/2, z+3/4, y+1/4'
   '-x+1/2, z+1/4, y+3/4'
   '-x, -z+1/2, -y+1/2'
   '-x+1/2, -z, -y+1/2'
   '-x+1/2, -z+1/2, -y'
   '-z, x+1/4, y+1/4'
   '-z+1/2, x+3/4, y+1/4'
   '-z+1/2, x+1/4, y+3/4'
   'z+3/4, x+1/4, -y+1/2'
   'z+1/4, x+3/4, -y+1/2'
   'z+1/4, x+1/4, -y'
   'z+3/4, -x+1/2, y+1/4'
   'z+1/4, -x, y+1/4'
   'z+1/4, -x+1/2, y+3/4'
   '-z, -x+1/2, -y+1/2'
   '-z+1/2, -x, -y+1/2'
   '-z+1/2, -x+1/2, -y'
   'y+3/4, -z+1/2, x+1/4'
   'y+1/4, -z, x+1/4'
   'y+1/4, -z+1/2, x+3/4'
   '-y, z+1/4, x+1/4'
   '-y+1/2, z+3/4, x+1/4'
   '-y+1/2, z+1/4, x+3/4'
   'y+3/4, z+1/4, -x+1/2'
   'y+1/4, z+3/4, -x+1/2'
   'y+1/4, z+1/4, -x'
   '-y, -z+1/2, -x+1/2'
   '-y+1/2, -z, -x+1/2'
   '-y+1/2, -z+1/2, -x'
   'x+3/4, y+1/4, -z+1/2'
   'x+1/4, y+3/4, -z+1/2'
   'x+1/4, y+1/4, -z'
   'x+3/4, -y+1/2, z+1/4'
   'x+1/4, -y, z+1/4'
   'x+1/4, -y+1/2, z+3/4'
   '-x, y+1/4, z+1/4'
   '-x+1/2, y+3/4, z+1/4'
   '-x+1/2, y+1/4, z+3/4'
   '-x, -y+1/2, -z+1/2'
   '-x+1/2, -y, -z+1/2'
   '-x+1/2, -y+1/2, -z'
   'z, -y+3/4, -x+3/4'
   'z+1/2, -y+1/4, -x+3/4'
   'z+1/2, -y+3/4, -x+1/4'
   '-z+1/4, y+1/2, -x+3/4'
   '-z+3/4, y, -x+3/4'
   '-z+3/4, y+1/2, -x+1/4'
   '-z+1/4, -y+3/4, x+1/2'
   '-z+3/4, -y+1/4, x+1/2'
   '-z+3/4, -y+3/4, x'
   'z, y+1/2, x+1/2'
   'z+1/2, y, x+1/2'
   'z+1/2, y+1/2, x'
   '-y+1/4, -x+3/4, z+1/2'
   '-y+3/4, -x+1/4, z+1/2'
   '-y+3/4, -x+3/4, z'
   'y, -x+3/4, -z+3/4'
   'y+1/2, -x+1/4, -z+3/4'
   'y+1/2, -x+3/4, -z+1/4'
   '-y+1/4, x+1/2, -z+3/4'
   '-y+3/4, x, -z+3/4'
   '-y+3/4, x+1/2, -z+1/4'
   'y, x+1/2, z+1/2'
   'y+1/2, x, z+1/2'
   'y+1/2, x+1/2, z'
   '-x+1/4, z+1/2, -y+3/4'
   '-x+3/4, z, -y+3/4'
   '-x+3/4, z+1/2, -y+1/4'
   '-x+1/4, -z+3/4, y+1/2'
   '-x+3/4, -z+1/4, y+1/2'
   '-x+3/4, -z+3/4, y'
   'x, -z+3/4, -y+3/4'
   'x+1/2, -z+1/4, -y+3/4'
   'x+1/2, -z+3/4, -y+1/4'
   'x, z+1/2, y+1/2'
   'x+1/2, z, y+1/2'
   'x+1/2, z+1/2, y'
   'z, -x+3/4, -y+3/4'
   'z+1/2, -x+1/4, -y+3/4'
   'z+1/2, -x+3/4, -y+1/4'
   '-z+1/4, -x+3/4, y+1/2'
   '-z+3/4, -x+1/4, y+1/2'
   '-z+3/4, -x+3/4, y'
   '-z+1/4, x+1/2, -y+3/4'
   '-z+3/4, x, -y+3/4'
   '-z+3/4, x+1/2, -y+1/4'
   'z, x+1/2, y+1/2'
   'z+1/2, x, y+1/2'
   'z+1/2, x+1/2, y'
   '-y+1/4, z+1/2, -x+3/4'
   '-y+3/4, z, -x+3/4'
   '-y+3/4, z+1/2, -x+1/4'
   'y, -z+3/4, -x+3/4'
   'y+1/2, -z+1/4, -x+3/4'
   'y+1/2, -z+3/4, -x+1/4'
   '-y+1/4, -z+3/4, x+1/2'
   '-y+3/4, -z+1/4, x+1/2'
   '-y+3/4, -z+3/4, x'
   'y, z+1/2, x+1/2'
   'y+1/2, z, x+1/2'
   'y+1/2, z+1/2, x'
   '-x+1/4, -y+3/4, z+1/2'
   '-x+3/4, -y+1/4, z+1/2'
   '-x+3/4, -y+3/4, z'
   '-x+1/4, y+1/2, -z+3/4'
   '-x+3/4, y, -z+3/4'
   '-x+3/4, y+1/2, -z+1/4'
   'x, -y+3/4, -z+3/4'
   'x+1/2, -y+1/4, -z+3/4'
   'x+1/2, -y+3/4, -z+1/4'
   'x, y+1/2, z+1/2'
   'x+1/2, y, z+1/2'
   'x+1/2, y+1/2, z'

loop_
 _atom_site_type_symbol
 _atom_site_label
 _atom_site_symmetry_multiplicity
 _atom_site_fract_x
 _atom_site_fract_y
 _atom_site_fract_z
 _atom_site_occupancy
  Na  16c  16   0.00   0.00   0.00
  Na   8a   8   0.125  0.125  0.125
