data_na3ps4
# http://www.crystallography.net/cod/7229733.html
_symmetry_space_group_name_H-M   'I -4 3 m'
_cell_length_a                   7.06985(4)
_cell_length_b                   7.06985(4)
_cell_length_c                   7.06985(4)
_cell_angle_alpha                90
_cell_angle_beta                 90
_cell_angle_gamma                90
_symmetry_Int_Tables_number   216
_cell_volume                     353.371(3)

loop_
_symmetry_equiv_pos_as_xyz
   'x, y, z'
   '-x, -z, y'
   '-x, z, -y'
   '-x, y, -z'
   '-y, -x, z'
   '-y, -z, x'
   '-y, z, -x'
   '-y, x, -z'
   '-z, -x, y'
   '-z, -y, x'
   '-z, y, -x'
   '-z, x, -y'
   'z, -x, -y'
   'z, -y, -x'
   'z, y, x'
   'z, x, y'
   'y, -x, -z'
   'y, -z, -x'
   'y, z, x'
   'y, x, z'
   'x, -y, -z'
   'x, -z, -y'
   'x, z, y'
   '-x, -y, z'
   'x+1/2, y+1/2, z+1/2'
   '-x+1/2, -z+1/2, y+1/2'
   '-x+1/2, z+1/2, -y+1/2'
   '-x+1/2, y+1/2, -z+1/2'
   '-y+1/2, -x+1/2, z+1/2'
   '-y+1/2, -z+1/2, x+1/2'
   '-y+1/2, z+1/2, -x+1/2'
   '-y+1/2, x+1/2, -z+1/2'
   '-z+1/2, -x+1/2, y+1/2'
   '-z+1/2, -y+1/2, x+1/2'
   '-z+1/2, y+1/2, -x+1/2'
   '-z+1/2, x+1/2, -y+1/2'
   'z+1/2, -x+1/2, -y+1/2'
   'z+1/2, -y+1/2, -x+1/2'
   'z+1/2, y+1/2, x+1/2'
   'z+1/2, x+1/2, y+1/2'
   'y+1/2, -x+1/2, -z+1/2'
   'y+1/2, -z+1/2, -x+1/2'
   'y+1/2, z+1/2, x+1/2'
   'y+1/2, x+1/2, z+1/2'
   'x+1/2, -y+1/2, -z+1/2'
   'x+1/2, -z+1/2, -y+1/2'
   'x+1/2, z+1/2, y+1/2'
   '-x+1/2, -y+1/2, z+1/2'

loop_
 _atom_site_type_symbol
 _atom_site_label
 _atom_site_symmetry_multiplicity
 _atom_site_fract_x
 _atom_site_fract_y
 _atom_site_fract_z
 _atom_site_occupancy
  Na  6b  6  0.50  0.50 0.00  1
